
---------- Begin Simulation Statistics ----------
final_tick                                  307662000                       # Number of ticks from beginning of simulation (restored from checkpoints and never reset)
host_inst_rate                                  19497                       # Simulator instruction rate (inst/s)
host_mem_usage                                 642488                       # Number of bytes of host memory used
host_op_rate                                    22483                       # Simulator op (including micro ops) rate (op/s)
host_seconds                                     0.24                       # Real time elapsed on the host
host_tick_rate                             1286072068                       # Simulator tick rate (ticks/s)
sim_freq                                 1000000000000                       # Frequency of simulated ticks
sim_insts                                        4566                       # Number of instructions simulated
sim_ops                                          5330                       # Number of ops (including micro ops) simulated
sim_seconds                                  0.000308                       # Number of seconds simulated
sim_ticks                                   307662000                       # Number of ticks simulated
system.cpu.Branches                              1008                       # Number of branches fetched
system.cpu.committedInsts                        4566                       # Number of instructions committed
system.cpu.committedOps                          5330                       # Number of ops (including micro ops) committed
system.cpu.dtb.accesses                             0                       # DTB accesses
system.cpu.dtb.align_faults                         0                       # Number of TLB faults due to alignment restrictions
system.cpu.dtb.domain_faults                        0                       # Number of TLB faults due to domain restrictions
system.cpu.dtb.flush_entries                        0                       # Number of entries that have been flushed from TLB
system.cpu.dtb.flush_tlb                            0                       # Number of times complete TLB was flushed
system.cpu.dtb.flush_tlb_asid                       0                       # Number of times TLB was flushed by ASID
system.cpu.dtb.flush_tlb_mva                        0                       # Number of times TLB was flushed by MVA
system.cpu.dtb.flush_tlb_mva_asid                   0                       # Number of times TLB was flushed by MVA & ASID
system.cpu.dtb.hits                                 0                       # DTB hits
system.cpu.dtb.inst_accesses                        0                       # ITB inst accesses
system.cpu.dtb.inst_hits                            0                       # ITB inst hits
system.cpu.dtb.inst_misses                          0                       # ITB inst misses
system.cpu.dtb.misses                               0                       # DTB misses
system.cpu.dtb.perms_faults                         0                       # Number of TLB faults due to permissions restrictions
system.cpu.dtb.prefetch_faults                      0                       # Number of TLB faults due to prefetch
system.cpu.dtb.read_accesses                        0                       # DTB read accesses
system.cpu.dtb.read_hits                            0                       # DTB read hits
system.cpu.dtb.read_misses                          0                       # DTB read misses
system.cpu.dtb.stage2_mmu.stage2_tlb.accesses            0                       # DTB accesses
system.cpu.dtb.stage2_mmu.stage2_tlb.align_faults            0                       # Number of TLB faults due to alignment restrictions
system.cpu.dtb.stage2_mmu.stage2_tlb.domain_faults            0                       # Number of TLB faults due to domain restrictions
system.cpu.dtb.stage2_mmu.stage2_tlb.flush_entries            0                       # Number of entries that have been flushed from TLB
system.cpu.dtb.stage2_mmu.stage2_tlb.flush_tlb            0                       # Number of times complete TLB was flushed
system.cpu.dtb.stage2_mmu.stage2_tlb.flush_tlb_asid            0                       # Number of times TLB was flushed by ASID
system.cpu.dtb.stage2_mmu.stage2_tlb.flush_tlb_mva            0                       # Number of times TLB was flushed by MVA
system.cpu.dtb.stage2_mmu.stage2_tlb.flush_tlb_mva_asid            0                       # Number of times TLB was flushed by MVA & ASID
system.cpu.dtb.stage2_mmu.stage2_tlb.hits            0                       # DTB hits
system.cpu.dtb.stage2_mmu.stage2_tlb.inst_accesses            0                       # ITB inst accesses
system.cpu.dtb.stage2_mmu.stage2_tlb.inst_hits            0                       # ITB inst hits
system.cpu.dtb.stage2_mmu.stage2_tlb.inst_misses            0                       # ITB inst misses
system.cpu.dtb.stage2_mmu.stage2_tlb.misses            0                       # DTB misses
system.cpu.dtb.stage2_mmu.stage2_tlb.perms_faults            0                       # Number of TLB faults due to permissions restrictions
system.cpu.dtb.stage2_mmu.stage2_tlb.prefetch_faults            0                       # Number of TLB faults due to prefetch
system.cpu.dtb.stage2_mmu.stage2_tlb.read_accesses            0                       # DTB read accesses
system.cpu.dtb.stage2_mmu.stage2_tlb.read_hits            0                       # DTB read hits
system.cpu.dtb.stage2_mmu.stage2_tlb.read_misses            0                       # DTB read misses
system.cpu.dtb.stage2_mmu.stage2_tlb.walker.walkRequestOrigin_Requested::Data            0                       # Table walker requests started/completed, data/inst
system.cpu.dtb.stage2_mmu.stage2_tlb.walker.walkRequestOrigin_Requested::Inst            0                       # Table walker requests started/completed, data/inst
system.cpu.dtb.stage2_mmu.stage2_tlb.walker.walkRequestOrigin_Requested::total            0                       # Table walker requests started/completed, data/inst
system.cpu.dtb.stage2_mmu.stage2_tlb.walker.walkRequestOrigin_Completed::Data            0                       # Table walker requests started/completed, data/inst
system.cpu.dtb.stage2_mmu.stage2_tlb.walker.walkRequestOrigin_Completed::Inst            0                       # Table walker requests started/completed, data/inst
system.cpu.dtb.stage2_mmu.stage2_tlb.walker.walkRequestOrigin_Completed::total            0                       # Table walker requests started/completed, data/inst
system.cpu.dtb.stage2_mmu.stage2_tlb.walker.walkRequestOrigin::total            0                       # Table walker requests started/completed, data/inst
system.cpu.dtb.stage2_mmu.stage2_tlb.walker.walks            0                       # Table walker walks requested
system.cpu.dtb.stage2_mmu.stage2_tlb.write_accesses            0                       # DTB write accesses
system.cpu.dtb.stage2_mmu.stage2_tlb.write_hits            0                       # DTB write hits
system.cpu.dtb.stage2_mmu.stage2_tlb.write_misses            0                       # DTB write misses
system.cpu.dtb.walker.walkRequestOrigin_Requested::Data            0                       # Table walker requests started/completed, data/inst
system.cpu.dtb.walker.walkRequestOrigin_Requested::Inst            0                       # Table walker requests started/completed, data/inst
system.cpu.dtb.walker.walkRequestOrigin_Requested::total            0                       # Table walker requests started/completed, data/inst
system.cpu.dtb.walker.walkRequestOrigin_Completed::Data            0                       # Table walker requests started/completed, data/inst
system.cpu.dtb.walker.walkRequestOrigin_Completed::Inst            0                       # Table walker requests started/completed, data/inst
system.cpu.dtb.walker.walkRequestOrigin_Completed::total            0                       # Table walker requests started/completed, data/inst
system.cpu.dtb.walker.walkRequestOrigin::total            0                       # Table walker requests started/completed, data/inst
system.cpu.dtb.walker.walks                         0                       # Table walker walks requested
system.cpu.dtb.write_accesses                       0                       # DTB write accesses
system.cpu.dtb.write_hits                           0                       # DTB write hits
system.cpu.dtb.write_misses                         0                       # DTB write misses
system.cpu.idle_fraction                     0.000000                       # Percentage of idle cycles
system.cpu.itb.accesses                             0                       # DTB accesses
system.cpu.itb.align_faults                         0                       # Number of TLB faults due to alignment restrictions
system.cpu.itb.domain_faults                        0                       # Number of TLB faults due to domain restrictions
system.cpu.itb.flush_entries                        0                       # Number of entries that have been flushed from TLB
system.cpu.itb.flush_tlb                            0                       # Number of times complete TLB was flushed
system.cpu.itb.flush_tlb_asid                       0                       # Number of times TLB was flushed by ASID
system.cpu.itb.flush_tlb_mva                        0                       # Number of times TLB was flushed by MVA
system.cpu.itb.flush_tlb_mva_asid                   0                       # Number of times TLB was flushed by MVA & ASID
system.cpu.itb.hits                                 0                       # DTB hits
system.cpu.itb.inst_accesses                        0                       # ITB inst accesses
system.cpu.itb.inst_hits                            0                       # ITB inst hits
system.cpu.itb.inst_misses                          0                       # ITB inst misses
system.cpu.itb.misses                               0                       # DTB misses
system.cpu.itb.perms_faults                         0                       # Number of TLB faults due to permissions restrictions
system.cpu.itb.prefetch_faults                      0                       # Number of TLB faults due to prefetch
system.cpu.itb.read_accesses                        0                       # DTB read accesses
system.cpu.itb.read_hits                            0                       # DTB read hits
system.cpu.itb.read_misses                          0                       # DTB read misses
system.cpu.itb.stage2_mmu.stage2_tlb.accesses            0                       # DTB accesses
system.cpu.itb.stage2_mmu.stage2_tlb.align_faults            0                       # Number of TLB faults due to alignment restrictions
system.cpu.itb.stage2_mmu.stage2_tlb.domain_faults            0                       # Number of TLB faults due to domain restrictions
system.cpu.itb.stage2_mmu.stage2_tlb.flush_entries            0                       # Number of entries that have been flushed from TLB
system.cpu.itb.stage2_mmu.stage2_tlb.flush_tlb            0                       # Number of times complete TLB was flushed
system.cpu.itb.stage2_mmu.stage2_tlb.flush_tlb_asid            0                       # Number of times TLB was flushed by ASID
system.cpu.itb.stage2_mmu.stage2_tlb.flush_tlb_mva            0                       # Number of times TLB was flushed by MVA
system.cpu.itb.stage2_mmu.stage2_tlb.flush_tlb_mva_asid            0                       # Number of times TLB was flushed by MVA & ASID
system.cpu.itb.stage2_mmu.stage2_tlb.hits            0                       # DTB hits
system.cpu.itb.stage2_mmu.stage2_tlb.inst_accesses            0                       # ITB inst accesses
system.cpu.itb.stage2_mmu.stage2_tlb.inst_hits            0                       # ITB inst hits
system.cpu.itb.stage2_mmu.stage2_tlb.inst_misses            0                       # ITB inst misses
system.cpu.itb.stage2_mmu.stage2_tlb.misses            0                       # DTB misses
system.cpu.itb.stage2_mmu.stage2_tlb.perms_faults            0                       # Number of TLB faults due to permissions restrictions
system.cpu.itb.stage2_mmu.stage2_tlb.prefetch_faults            0                       # Number of TLB faults due to prefetch
system.cpu.itb.stage2_mmu.stage2_tlb.read_accesses            0                       # DTB read accesses
system.cpu.itb.stage2_mmu.stage2_tlb.read_hits            0                       # DTB read hits
system.cpu.itb.stage2_mmu.stage2_tlb.read_misses            0                       # DTB read misses
system.cpu.itb.stage2_mmu.stage2_tlb.walker.walkRequestOrigin_Requested::Data            0                       # Table walker requests started/completed, data/inst
system.cpu.itb.stage2_mmu.stage2_tlb.walker.walkRequestOrigin_Requested::Inst            0                       # Table walker requests started/completed, data/inst
system.cpu.itb.stage2_mmu.stage2_tlb.walker.walkRequestOrigin_Requested::total            0                       # Table walker requests started/completed, data/inst
system.cpu.itb.stage2_mmu.stage2_tlb.walker.walkRequestOrigin_Completed::Data            0                       # Table walker requests started/completed, data/inst
system.cpu.itb.stage2_mmu.stage2_tlb.walker.walkRequestOrigin_Completed::Inst            0                       # Table walker requests started/completed, data/inst
system.cpu.itb.stage2_mmu.stage2_tlb.walker.walkRequestOrigin_Completed::total            0                       # Table walker requests started/completed, data/inst
system.cpu.itb.stage2_mmu.stage2_tlb.walker.walkRequestOrigin::total            0                       # Table walker requests started/completed, data/inst
system.cpu.itb.stage2_mmu.stage2_tlb.walker.walks            0                       # Table walker walks requested
system.cpu.itb.stage2_mmu.stage2_tlb.write_accesses            0                       # DTB write accesses
system.cpu.itb.stage2_mmu.stage2_tlb.write_hits            0                       # DTB write hits
system.cpu.itb.stage2_mmu.stage2_tlb.write_misses            0                       # DTB write misses
system.cpu.itb.walker.walkRequestOrigin_Requested::Data            0                       # Table walker requests started/completed, data/inst
system.cpu.itb.walker.walkRequestOrigin_Requested::Inst            0                       # Table walker requests started/completed, data/inst
system.cpu.itb.walker.walkRequestOrigin_Requested::total            0                       # Table walker requests started/completed, data/inst
system.cpu.itb.walker.walkRequestOrigin_Completed::Data            0                       # Table walker requests started/completed, data/inst
system.cpu.itb.walker.walkRequestOrigin_Completed::Inst            0                       # Table walker requests started/completed, data/inst
system.cpu.itb.walker.walkRequestOrigin_Completed::total            0                       # Table walker requests started/completed, data/inst
system.cpu.itb.walker.walkRequestOrigin::total            0                       # Table walker requests started/completed, data/inst
system.cpu.itb.walker.walks                         0                       # Table walker walks requested
system.cpu.itb.write_accesses                       0                       # DTB write accesses
system.cpu.itb.write_hits                           0                       # DTB write hits
system.cpu.itb.write_misses                         0                       # DTB write misses
system.cpu.not_idle_fraction                 1.000000                       # Percentage of non-idle cycles
system.cpu.numCycles                           307662                       # number of cpu cycles simulated
system.cpu.numWorkItemsCompleted                    0                       # number of work items this cpu completed
system.cpu.numWorkItemsStarted                      0                       # number of work items this cpu started
system.cpu.num_busy_cycles               307661.999000                       # Number of busy cycles
system.cpu.num_cc_register_reads                19187                       # number of times the CC registers were read
system.cpu.num_cc_register_writes                2432                       # number of times the CC registers were written
system.cpu.num_conditional_control_insts          722                       # number of instructions that are conditional controls
system.cpu.num_fp_alu_accesses                      0                       # Number of float alu accesses
system.cpu.num_fp_insts                             0                       # number of float instructions
system.cpu.num_fp_register_reads                    0                       # number of times the floating registers were read
system.cpu.num_fp_register_writes                   0                       # number of times the floating registers were written
system.cpu.num_func_calls                         203                       # number of times a function call or return occured
system.cpu.num_idle_cycles                   0.001000                       # Number of idle cycles
system.cpu.num_int_alu_accesses                  4637                       # Number of integer alu accesses
system.cpu.num_int_insts                         4637                       # number of integer instructions
system.cpu.num_int_register_reads                7468                       # number of times the integer registers were read
system.cpu.num_int_register_writes               2750                       # number of times the integer registers were written
system.cpu.num_load_insts                        1027                       # Number of load instructions
system.cpu.num_mem_refs                          1965                       # number of memory refs
system.cpu.num_store_insts                        938                       # Number of store instructions
system.cpu.num_vec_alu_accesses                     0                       # Number of vector alu accesses
system.cpu.num_vec_insts                            0                       # number of vector instructions
system.cpu.num_vec_register_reads                  16                       # number of times the vector registers were read
system.cpu.num_vec_register_writes                  0                       # number of times the vector registers were written
system.cpu.op_class::No_OpClass                     0      0.00%      0.00% # Class of executed instruction
system.cpu.op_class::IntAlu                      3419     63.42%     63.42% # Class of executed instruction
system.cpu.op_class::IntMult                        4      0.07%     63.49% # Class of executed instruction
system.cpu.op_class::IntDiv                         0      0.00%     63.49% # Class of executed instruction
system.cpu.op_class::FloatAdd                       0      0.00%     63.49% # Class of executed instruction
system.cpu.op_class::FloatCmp                       0      0.00%     63.49% # Class of executed instruction
system.cpu.op_class::FloatCvt                       0      0.00%     63.49% # Class of executed instruction
system.cpu.op_class::FloatMult                      0      0.00%     63.49% # Class of executed instruction
system.cpu.op_class::FloatMultAcc                   0      0.00%     63.49% # Class of executed instruction
system.cpu.op_class::FloatDiv                       0      0.00%     63.49% # Class of executed instruction
system.cpu.op_class::FloatMisc                      0      0.00%     63.49% # Class of executed instruction
system.cpu.op_class::FloatSqrt                      0      0.00%     63.49% # Class of executed instruction
system.cpu.op_class::SimdAdd                        0      0.00%     63.49% # Class of executed instruction
system.cpu.op_class::SimdAddAcc                     0      0.00%     63.49% # Class of executed instruction
system.cpu.op_class::SimdAlu                        0      0.00%     63.49% # Class of executed instruction
system.cpu.op_class::SimdCmp                        0      0.00%     63.49% # Class of executed instruction
system.cpu.op_class::SimdCvt                        0      0.00%     63.49% # Class of executed instruction
system.cpu.op_class::SimdMisc                       0      0.00%     63.49% # Class of executed instruction
system.cpu.op_class::SimdMult                       0      0.00%     63.49% # Class of executed instruction
system.cpu.op_class::SimdMultAcc                    0      0.00%     63.49% # Class of executed instruction
system.cpu.op_class::SimdShift                      0      0.00%     63.49% # Class of executed instruction
system.cpu.op_class::SimdShiftAcc                   0      0.00%     63.49% # Class of executed instruction
system.cpu.op_class::SimdDiv                        0      0.00%     63.49% # Class of executed instruction
system.cpu.op_class::SimdSqrt                       0      0.00%     63.49% # Class of executed instruction
system.cpu.op_class::SimdFloatAdd                   0      0.00%     63.49% # Class of executed instruction
system.cpu.op_class::SimdFloatAlu                   0      0.00%     63.49% # Class of executed instruction
system.cpu.op_class::SimdFloatCmp                   0      0.00%     63.49% # Class of executed instruction
system.cpu.op_class::SimdFloatCvt                   0      0.00%     63.49% # Class of executed instruction
system.cpu.op_class::SimdFloatDiv                   0      0.00%     63.49% # Class of executed instruction
system.cpu.op_class::SimdFloatMisc                  3      0.06%     63.55% # Class of executed instruction
system.cpu.op_class::SimdFloatMult                  0      0.00%     63.55% # Class of executed instruction
system.cpu.op_class::SimdFloatMultAcc               0      0.00%     63.55% # Class of executed instruction
system.cpu.op_class::SimdFloatSqrt                  0      0.00%     63.55% # Class of executed instruction
system.cpu.op_class::SimdReduceAdd                  0      0.00%     63.55% # Class of executed instruction
system.cpu.op_class::SimdReduceAlu                  0      0.00%     63.55% # Class of executed instruction
system.cpu.op_class::SimdReduceCmp                  0      0.00%     63.55% # Class of executed instruction
system.cpu.op_class::SimdFloatReduceAdd             0      0.00%     63.55% # Class of executed instruction
system.cpu.op_class::SimdFloatReduceCmp             0      0.00%     63.55% # Class of executed instruction
system.cpu.op_class::SimdAes                        0      0.00%     63.55% # Class of executed instruction
system.cpu.op_class::SimdAesMix                     0      0.00%     63.55% # Class of executed instruction
system.cpu.op_class::SimdSha1Hash                   0      0.00%     63.55% # Class of executed instruction
system.cpu.op_class::SimdSha1Hash2                  0      0.00%     63.55% # Class of executed instruction
system.cpu.op_class::SimdSha256Hash                 0      0.00%     63.55% # Class of executed instruction
system.cpu.op_class::SimdSha256Hash2                0      0.00%     63.55% # Class of executed instruction
system.cpu.op_class::SimdShaSigma2                  0      0.00%     63.55% # Class of executed instruction
system.cpu.op_class::SimdShaSigma3                  0      0.00%     63.55% # Class of executed instruction
system.cpu.op_class::SimdPredAlu                    0      0.00%     63.55% # Class of executed instruction
system.cpu.op_class::MemRead                     1027     19.05%     82.60% # Class of executed instruction
system.cpu.op_class::MemWrite                     938     17.40%    100.00% # Class of executed instruction
system.cpu.op_class::FloatMemRead                   0      0.00%    100.00% # Class of executed instruction
system.cpu.op_class::FloatMemWrite                  0      0.00%    100.00% # Class of executed instruction
system.cpu.op_class::IprAccess                      0      0.00%    100.00% # Class of executed instruction
system.cpu.op_class::InstPrefetch                   0      0.00%    100.00% # Class of executed instruction
system.cpu.op_class::total                       5391                       # Class of executed instruction
system.cpu.workload.numSyscalls                    13                       # Number of system calls
system.membus.snoop_filter.hit_multi_requests            0                       # Number of requests hitting in the snoop filter with multiple (>1) holders of the requested data.
system.membus.snoop_filter.hit_multi_snoops            0                       # Number of snoops hitting in the snoop filter with multiple (>1) holders of the requested data.
system.membus.snoop_filter.hit_single_requests            0                       # Number of requests hitting in the snoop filter with a single holder of the requested data.
system.membus.snoop_filter.hit_single_snoops            0                       # Number of snoops hitting in the snoop filter with a single holder of the requested data.
system.membus.snoop_filter.tot_requests             0                       # Total number of requests made to the snoop filter.
system.membus.snoop_filter.tot_snoops               0                       # Total number of snoops made to the snoop filter.
system.membus.pwrStateResidencyTicks::UNDEFINED    307662000                       # Cumulative time (in ticks) in various power states
system.membus.trans_dist::ReadReq                5597                       # Transaction distribution
system.membus.trans_dist::ReadResp               5608                       # Transaction distribution
system.membus.trans_dist::WriteReq                913                       # Transaction distribution
system.membus.trans_dist::WriteResp               913                       # Transaction distribution
system.membus.trans_dist::LoadLockedReq            11                       # Transaction distribution
system.membus.trans_dist::StoreCondReq             11                       # Transaction distribution
system.membus.trans_dist::StoreCondResp            11                       # Transaction distribution
system.membus.pkt_count_system.cpu.icache_port::system.mem_ctrl.port         9210                       # Packet count per connected master and slave (bytes)
system.membus.pkt_count_system.cpu.dcache_port::system.mem_ctrl.port         3854                       # Packet count per connected master and slave (bytes)
system.membus.pkt_count::total                  13064                       # Packet count per connected master and slave (bytes)
system.membus.pkt_size_system.cpu.icache_port::system.mem_ctrl.port        18420                       # Cumulative packet size per connected master and slave (bytes)
system.membus.pkt_size_system.cpu.dcache_port::system.mem_ctrl.port         8139                       # Cumulative packet size per connected master and slave (bytes)
system.membus.pkt_size::total                   26559                       # Cumulative packet size per connected master and slave (bytes)
system.membus.snoops                                0                       # Total snoops (count)
system.membus.snoopTraffic                          0                       # Total snoop traffic (bytes)
system.membus.snoop_fanout::samples              6532                       # Request fanout histogram
system.membus.snoop_fanout::mean                    0                       # Request fanout histogram
system.membus.snoop_fanout::stdev                   0                       # Request fanout histogram
system.membus.snoop_fanout::underflows              0      0.00%      0.00% # Request fanout histogram
system.membus.snoop_fanout::0                    6532    100.00%    100.00% # Request fanout histogram
system.membus.snoop_fanout::1                       0      0.00%    100.00% # Request fanout histogram
system.membus.snoop_fanout::overflows               0      0.00%    100.00% # Request fanout histogram
system.membus.snoop_fanout::min_value               0                       # Request fanout histogram
system.membus.snoop_fanout::max_value               0                       # Request fanout histogram
system.membus.snoop_fanout::total                6532                       # Request fanout histogram
system.membus.reqLayer0.occupancy             7456000                       # Layer occupancy (ticks)
system.membus.reqLayer0.utilization               2.4                       # Layer utilization (%)
system.membus.respLayer1.occupancy            3181500                       # Layer occupancy (ticks)
system.membus.respLayer1.utilization              1.0                       # Layer utilization (%)
system.membus.respLayer0.occupancy           10455000                       # Layer occupancy (ticks)
system.membus.respLayer0.utilization              3.4                       # Layer utilization (%)
system.mem_ctrl.pwrStateResidencyTicks::UNDEFINED    307662000                       # Cumulative time (in ticks) in various power states
system.mem_ctrl.bytes_read::.cpu.inst           18420                       # Number of bytes read from this memory
system.mem_ctrl.bytes_read::.cpu.data            4491                       # Number of bytes read from this memory
system.mem_ctrl.bytes_read::total               22911                       # Number of bytes read from this memory
system.mem_ctrl.bytes_inst_read::.cpu.inst        18420                       # Number of instructions bytes read from this memory
system.mem_ctrl.bytes_inst_read::total          18420                       # Number of instructions bytes read from this memory
system.mem_ctrl.bytes_written::.cpu.data         3648                       # Number of bytes written to this memory
system.mem_ctrl.bytes_written::total             3648                       # Number of bytes written to this memory
system.mem_ctrl.num_reads::.cpu.inst             4605                       # Number of read requests responded to by this memory
system.mem_ctrl.num_reads::.cpu.data             1003                       # Number of read requests responded to by this memory
system.mem_ctrl.num_reads::total                 5608                       # Number of read requests responded to by this memory
system.mem_ctrl.num_writes::.cpu.data             924                       # Number of write requests responded to by this memory
system.mem_ctrl.num_writes::total                 924                       # Number of write requests responded to by this memory
system.mem_ctrl.bw_read::.cpu.inst           59870897                       # Total read bandwidth from this memory (bytes/s)
system.mem_ctrl.bw_read::.cpu.data           14597188                       # Total read bandwidth from this memory (bytes/s)
system.mem_ctrl.bw_read::total               74468085                       # Total read bandwidth from this memory (bytes/s)
system.mem_ctrl.bw_inst_read::.cpu.inst      59870897                       # Instruction read bandwidth from this memory (bytes/s)
system.mem_ctrl.bw_inst_read::total          59870897                       # Instruction read bandwidth from this memory (bytes/s)
system.mem_ctrl.bw_write::.cpu.data          11857168                       # Write bandwidth from this memory (bytes/s)
system.mem_ctrl.bw_write::total              11857168                       # Write bandwidth from this memory (bytes/s)
system.mem_ctrl.bw_total::.cpu.inst          59870897                       # Total bandwidth to/from this memory (bytes/s)
system.mem_ctrl.bw_total::.cpu.data          26454356                       # Total bandwidth to/from this memory (bytes/s)
system.mem_ctrl.bw_total::total              86325253                       # Total bandwidth to/from this memory (bytes/s)
system.mem_ctrl.avgPriority_.cpu.inst::samples      4605.00                       # Average QoS priority value for accepted requests
system.mem_ctrl.avgPriority_.cpu.data::samples       984.00                       # Average QoS priority value for accepted requests
system.mem_ctrl.priorityMinLatency       0.000000018750                       # per QoS priority minimum request to response latency (s)
system.mem_ctrl.priorityMaxLatency       0.000357914750                       # per QoS priority maximum request to response latency (s)
system.mem_ctrl.numReadWriteTurnArounds             4                       # Number of turnarounds from READ to WRITE
system.mem_ctrl.numWriteReadTurnArounds             4                       # Number of turnarounds from WRITE to READ
system.mem_ctrl.numStayReadState                12014                       # Number of times bus staying in READ state
system.mem_ctrl.numStayWriteState                  60                       # Number of times bus staying in WRITE state
system.mem_ctrl.readReqs                         5608                       # Number of read requests accepted
system.mem_ctrl.writeReqs                         924                       # Number of write requests accepted
system.mem_ctrl.readBursts                       5608                       # Number of DRAM read bursts, including those serviced by the write queue
system.mem_ctrl.writeBursts                       924                       # Number of DRAM write bursts, including those merged in the write queue
system.mem_ctrl.servicedByWrQ                     100                       # Number of DRAM read bursts serviced by the write queue
system.mem_ctrl.mergedWrBursts                    843                       # Number of DRAM write bursts merged with an existing one
system.mem_ctrl.neitherReadNorWriteReqs             0                       # Number of requests that are neither read nor write
system.mem_ctrl.perBankRdBursts::0                911                       # Per bank write bursts
system.mem_ctrl.perBankRdBursts::1               1014                       # Per bank write bursts
system.mem_ctrl.perBankRdBursts::2                724                       # Per bank write bursts
system.mem_ctrl.perBankRdBursts::3                364                       # Per bank write bursts
system.mem_ctrl.perBankRdBursts::4                505                       # Per bank write bursts
system.mem_ctrl.perBankRdBursts::5                302                       # Per bank write bursts
system.mem_ctrl.perBankRdBursts::6                487                       # Per bank write bursts
system.mem_ctrl.perBankRdBursts::7                206                       # Per bank write bursts
system.mem_ctrl.perBankRdBursts::8                 42                       # Per bank write bursts
system.mem_ctrl.perBankRdBursts::9                155                       # Per bank write bursts
system.mem_ctrl.perBankRdBursts::10               192                       # Per bank write bursts
system.mem_ctrl.perBankRdBursts::11               382                       # Per bank write bursts
system.mem_ctrl.perBankRdBursts::12               108                       # Per bank write bursts
system.mem_ctrl.perBankRdBursts::13                36                       # Per bank write bursts
system.mem_ctrl.perBankRdBursts::14                 0                       # Per bank write bursts
system.mem_ctrl.perBankRdBursts::15                80                       # Per bank write bursts
system.mem_ctrl.perBankWrBursts::0                  0                       # Per bank write bursts
system.mem_ctrl.perBankWrBursts::1                  0                       # Per bank write bursts
system.mem_ctrl.perBankWrBursts::2                  0                       # Per bank write bursts
system.mem_ctrl.perBankWrBursts::3                  0                       # Per bank write bursts
system.mem_ctrl.perBankWrBursts::4                  0                       # Per bank write bursts
system.mem_ctrl.perBankWrBursts::5                  0                       # Per bank write bursts
system.mem_ctrl.perBankWrBursts::6                  0                       # Per bank write bursts
system.mem_ctrl.perBankWrBursts::7                  0                       # Per bank write bursts
system.mem_ctrl.perBankWrBursts::8                  0                       # Per bank write bursts
system.mem_ctrl.perBankWrBursts::9                  0                       # Per bank write bursts
system.mem_ctrl.perBankWrBursts::10                21                       # Per bank write bursts
system.mem_ctrl.perBankWrBursts::11                37                       # Per bank write bursts
system.mem_ctrl.perBankWrBursts::12                 6                       # Per bank write bursts
system.mem_ctrl.perBankWrBursts::13                 0                       # Per bank write bursts
system.mem_ctrl.perBankWrBursts::14                 0                       # Per bank write bursts
system.mem_ctrl.perBankWrBursts::15                 0                       # Per bank write bursts
system.mem_ctrl.avgRdQLen                        1.00                       # Average read queue length when enqueuing
system.mem_ctrl.avgWrQLen                       24.36                       # Average write queue length when enqueuing
system.mem_ctrl.totQLat                      16725500                       # Total ticks spent queuing
system.mem_ctrl.totBusLat                    27540000                       # Total ticks spent in databus transfers
system.mem_ctrl.totMemAccLat                120000500                       # Total ticks spent from burst creation until serviced by the DRAM
system.mem_ctrl.avgQLat                       3036.58                       # Average queueing delay per DRAM burst
system.mem_ctrl.avgBusLat                     5000.00                       # Average bus latency per DRAM burst
system.mem_ctrl.avgMemAccLat                 21786.58                       # Average memory access latency per DRAM burst
system.mem_ctrl.numRdRetry                          0                       # Number of times read queue was full causing retry
system.mem_ctrl.numWrRetry                          0                       # Number of times write queue was full causing retry
system.mem_ctrl.readRowHits                      5046                       # Number of row buffer hits during reads
system.mem_ctrl.writeRowHits                       62                       # Number of row buffer hits during writes
system.mem_ctrl.readRowHitRate                  91.61                       # Row buffer hit rate for reads
system.mem_ctrl.writeRowHitRate                 76.54                       # Row buffer hit rate for writes
system.mem_ctrl.readPktSize::0                     45                       # Read request sizes (log2)
system.mem_ctrl.readPktSize::1                      1                       # Read request sizes (log2)
system.mem_ctrl.readPktSize::2                   5408                       # Read request sizes (log2)
system.mem_ctrl.readPktSize::3                    154                       # Read request sizes (log2)
system.mem_ctrl.readPktSize::4                      0                       # Read request sizes (log2)
system.mem_ctrl.readPktSize::5                      0                       # Read request sizes (log2)
system.mem_ctrl.readPktSize::6                      0                       # Read request sizes (log2)
system.mem_ctrl.writePktSize::0                    16                       # Write request sizes (log2)
system.mem_ctrl.writePktSize::1                     0                       # Write request sizes (log2)
system.mem_ctrl.writePktSize::2                   908                       # Write request sizes (log2)
system.mem_ctrl.writePktSize::3                     0                       # Write request sizes (log2)
system.mem_ctrl.writePktSize::4                     0                       # Write request sizes (log2)
system.mem_ctrl.writePktSize::5                     0                       # Write request sizes (log2)
system.mem_ctrl.writePktSize::6                     0                       # Write request sizes (log2)
system.mem_ctrl.rdQLenPdf::0                     5499                       # What read queue length does an incoming req see
system.mem_ctrl.rdQLenPdf::1                        9                       # What read queue length does an incoming req see
system.mem_ctrl.rdQLenPdf::2                        0                       # What read queue length does an incoming req see
system.mem_ctrl.rdQLenPdf::3                        0                       # What read queue length does an incoming req see
system.mem_ctrl.rdQLenPdf::4                        0                       # What read queue length does an incoming req see
system.mem_ctrl.rdQLenPdf::5                        0                       # What read queue length does an incoming req see
system.mem_ctrl.rdQLenPdf::6                        0                       # What read queue length does an incoming req see
system.mem_ctrl.rdQLenPdf::7                        0                       # What read queue length does an incoming req see
system.mem_ctrl.rdQLenPdf::8                        0                       # What read queue length does an incoming req see
system.mem_ctrl.rdQLenPdf::9                        0                       # What read queue length does an incoming req see
system.mem_ctrl.rdQLenPdf::10                       0                       # What read queue length does an incoming req see
system.mem_ctrl.rdQLenPdf::11                       0                       # What read queue length does an incoming req see
system.mem_ctrl.rdQLenPdf::12                       0                       # What read queue length does an incoming req see
system.mem_ctrl.rdQLenPdf::13                       0                       # What read queue length does an incoming req see
system.mem_ctrl.rdQLenPdf::14                       0                       # What read queue length does an incoming req see
system.mem_ctrl.rdQLenPdf::15                       0                       # What read queue length does an incoming req see
system.mem_ctrl.rdQLenPdf::16                       0                       # What read queue length does an incoming req see
system.mem_ctrl.rdQLenPdf::17                       0                       # What read queue length does an incoming req see
system.mem_ctrl.rdQLenPdf::18                       0                       # What read queue length does an incoming req see
system.mem_ctrl.rdQLenPdf::19                       0                       # What read queue length does an incoming req see
system.mem_ctrl.rdQLenPdf::20                       0                       # What read queue length does an incoming req see
system.mem_ctrl.rdQLenPdf::21                       0                       # What read queue length does an incoming req see
system.mem_ctrl.rdQLenPdf::22                       0                       # What read queue length does an incoming req see
system.mem_ctrl.rdQLenPdf::23                       0                       # What read queue length does an incoming req see
system.mem_ctrl.rdQLenPdf::24                       0                       # What read queue length does an incoming req see
system.mem_ctrl.rdQLenPdf::25                       0                       # What read queue length does an incoming req see
system.mem_ctrl.rdQLenPdf::26                       0                       # What read queue length does an incoming req see
system.mem_ctrl.rdQLenPdf::27                       0                       # What read queue length does an incoming req see
system.mem_ctrl.rdQLenPdf::28                       0                       # What read queue length does an incoming req see
system.mem_ctrl.rdQLenPdf::29                       0                       # What read queue length does an incoming req see
system.mem_ctrl.rdQLenPdf::30                       0                       # What read queue length does an incoming req see
system.mem_ctrl.rdQLenPdf::31                       0                       # What read queue length does an incoming req see
system.mem_ctrl.wrQLenPdf::0                        1                       # What write queue length does an incoming req see
system.mem_ctrl.wrQLenPdf::1                        1                       # What write queue length does an incoming req see
system.mem_ctrl.wrQLenPdf::2                        1                       # What write queue length does an incoming req see
system.mem_ctrl.wrQLenPdf::3                        1                       # What write queue length does an incoming req see
system.mem_ctrl.wrQLenPdf::4                        1                       # What write queue length does an incoming req see
system.mem_ctrl.wrQLenPdf::5                        1                       # What write queue length does an incoming req see
system.mem_ctrl.wrQLenPdf::6                        1                       # What write queue length does an incoming req see
system.mem_ctrl.wrQLenPdf::7                        1                       # What write queue length does an incoming req see
system.mem_ctrl.wrQLenPdf::8                        1                       # What write queue length does an incoming req see
system.mem_ctrl.wrQLenPdf::9                        1                       # What write queue length does an incoming req see
system.mem_ctrl.wrQLenPdf::10                       1                       # What write queue length does an incoming req see
system.mem_ctrl.wrQLenPdf::11                       1                       # What write queue length does an incoming req see
system.mem_ctrl.wrQLenPdf::12                       1                       # What write queue length does an incoming req see
system.mem_ctrl.wrQLenPdf::13                       1                       # What write queue length does an incoming req see
system.mem_ctrl.wrQLenPdf::14                       1                       # What write queue length does an incoming req see
system.mem_ctrl.wrQLenPdf::15                       1                       # What write queue length does an incoming req see
system.mem_ctrl.wrQLenPdf::16                       1                       # What write queue length does an incoming req see
system.mem_ctrl.wrQLenPdf::17                       4                       # What write queue length does an incoming req see
system.mem_ctrl.wrQLenPdf::18                       4                       # What write queue length does an incoming req see
system.mem_ctrl.wrQLenPdf::19                       4                       # What write queue length does an incoming req see
system.mem_ctrl.wrQLenPdf::20                       4                       # What write queue length does an incoming req see
system.mem_ctrl.wrQLenPdf::21                       4                       # What write queue length does an incoming req see
system.mem_ctrl.wrQLenPdf::22                       4                       # What write queue length does an incoming req see
system.mem_ctrl.wrQLenPdf::23                       4                       # What write queue length does an incoming req see
system.mem_ctrl.wrQLenPdf::24                       4                       # What write queue length does an incoming req see
system.mem_ctrl.wrQLenPdf::25                       4                       # What write queue length does an incoming req see
system.mem_ctrl.wrQLenPdf::26                       4                       # What write queue length does an incoming req see
system.mem_ctrl.wrQLenPdf::27                       4                       # What write queue length does an incoming req see
system.mem_ctrl.wrQLenPdf::28                       4                       # What write queue length does an incoming req see
system.mem_ctrl.wrQLenPdf::29                       4                       # What write queue length does an incoming req see
system.mem_ctrl.wrQLenPdf::30                       4                       # What write queue length does an incoming req see
system.mem_ctrl.wrQLenPdf::31                       4                       # What write queue length does an incoming req see
system.mem_ctrl.wrQLenPdf::32                       4                       # What write queue length does an incoming req see
system.mem_ctrl.wrQLenPdf::33                       0                       # What write queue length does an incoming req see
system.mem_ctrl.wrQLenPdf::34                       0                       # What write queue length does an incoming req see
system.mem_ctrl.wrQLenPdf::35                       0                       # What write queue length does an incoming req see
system.mem_ctrl.wrQLenPdf::36                       0                       # What write queue length does an incoming req see
system.mem_ctrl.wrQLenPdf::37                       0                       # What write queue length does an incoming req see
system.mem_ctrl.wrQLenPdf::38                       0                       # What write queue length does an incoming req see
system.mem_ctrl.wrQLenPdf::39                       0                       # What write queue length does an incoming req see
system.mem_ctrl.wrQLenPdf::40                       0                       # What write queue length does an incoming req see
system.mem_ctrl.wrQLenPdf::41                       0                       # What write queue length does an incoming req see
system.mem_ctrl.wrQLenPdf::42                       0                       # What write queue length does an incoming req see
system.mem_ctrl.wrQLenPdf::43                       0                       # What write queue length does an incoming req see
system.mem_ctrl.wrQLenPdf::44                       0                       # What write queue length does an incoming req see
system.mem_ctrl.wrQLenPdf::45                       0                       # What write queue length does an incoming req see
system.mem_ctrl.wrQLenPdf::46                       0                       # What write queue length does an incoming req see
system.mem_ctrl.wrQLenPdf::47                       0                       # What write queue length does an incoming req see
system.mem_ctrl.wrQLenPdf::48                       0                       # What write queue length does an incoming req see
system.mem_ctrl.wrQLenPdf::49                       0                       # What write queue length does an incoming req see
system.mem_ctrl.wrQLenPdf::50                       0                       # What write queue length does an incoming req see
system.mem_ctrl.wrQLenPdf::51                       0                       # What write queue length does an incoming req see
system.mem_ctrl.wrQLenPdf::52                       0                       # What write queue length does an incoming req see
system.mem_ctrl.wrQLenPdf::53                       0                       # What write queue length does an incoming req see
system.mem_ctrl.wrQLenPdf::54                       0                       # What write queue length does an incoming req see
system.mem_ctrl.wrQLenPdf::55                       0                       # What write queue length does an incoming req see
system.mem_ctrl.wrQLenPdf::56                       0                       # What write queue length does an incoming req see
system.mem_ctrl.wrQLenPdf::57                       0                       # What write queue length does an incoming req see
system.mem_ctrl.wrQLenPdf::58                       0                       # What write queue length does an incoming req see
system.mem_ctrl.wrQLenPdf::59                       0                       # What write queue length does an incoming req see
system.mem_ctrl.wrQLenPdf::60                       0                       # What write queue length does an incoming req see
system.mem_ctrl.wrQLenPdf::61                       0                       # What write queue length does an incoming req see
system.mem_ctrl.wrQLenPdf::62                       0                       # What write queue length does an incoming req see
system.mem_ctrl.wrQLenPdf::63                       0                       # What write queue length does an incoming req see
system.mem_ctrl.bytesPerActivate::samples          458                       # Bytes accessed per row activation
system.mem_ctrl.bytesPerActivate::mean     771.074236                       # Bytes accessed per row activation
system.mem_ctrl.bytesPerActivate::gmean    631.446405                       # Bytes accessed per row activation
system.mem_ctrl.bytesPerActivate::stdev    338.959637                       # Bytes accessed per row activation
system.mem_ctrl.bytesPerActivate::0-127            22      4.80%      4.80% # Bytes accessed per row activation
system.mem_ctrl.bytesPerActivate::128-255           34      7.42%     12.23% # Bytes accessed per row activation
system.mem_ctrl.bytesPerActivate::256-383           35      7.64%     19.87% # Bytes accessed per row activation
system.mem_ctrl.bytesPerActivate::384-511           19      4.15%     24.02% # Bytes accessed per row activation
system.mem_ctrl.bytesPerActivate::512-639           21      4.59%     28.60% # Bytes accessed per row activation
system.mem_ctrl.bytesPerActivate::640-767           24      5.24%     33.84% # Bytes accessed per row activation
system.mem_ctrl.bytesPerActivate::768-895           26      5.68%     39.52% # Bytes accessed per row activation
system.mem_ctrl.bytesPerActivate::896-1023           36      7.86%     47.38% # Bytes accessed per row activation
system.mem_ctrl.bytesPerActivate::1024-1151          241     52.62%    100.00% # Bytes accessed per row activation
system.mem_ctrl.bytesPerActivate::total           458                       # Bytes accessed per row activation
system.mem_ctrl.rdPerTurnAround::samples            4                       # Reads before turning the bus around for writes
system.mem_ctrl.rdPerTurnAround::mean     1370.500000                       # Reads before turning the bus around for writes
system.mem_ctrl.rdPerTurnAround::gmean    1271.810633                       # Reads before turning the bus around for writes
system.mem_ctrl.rdPerTurnAround::stdev     568.454337                       # Reads before turning the bus around for writes
system.mem_ctrl.rdPerTurnAround::640-767            1     25.00%     25.00% # Reads before turning the bus around for writes
system.mem_ctrl.rdPerTurnAround::1280-1407            1     25.00%     50.00% # Reads before turning the bus around for writes
system.mem_ctrl.rdPerTurnAround::1408-1535            1     25.00%     75.00% # Reads before turning the bus around for writes
system.mem_ctrl.rdPerTurnAround::2048-2175            1     25.00%    100.00% # Reads before turning the bus around for writes
system.mem_ctrl.rdPerTurnAround::total              4                       # Reads before turning the bus around for writes
system.mem_ctrl.wrPerTurnAround::samples            4                       # Writes before turning the bus around for reads
system.mem_ctrl.wrPerTurnAround::mean              16                       # Writes before turning the bus around for reads
system.mem_ctrl.wrPerTurnAround::gmean      16.000000                       # Writes before turning the bus around for reads
system.mem_ctrl.wrPerTurnAround::16                 4    100.00%    100.00% # Writes before turning the bus around for reads
system.mem_ctrl.wrPerTurnAround::total              4                       # Writes before turning the bus around for reads
system.mem_ctrl.bytesReadDRAM                  352512                       # Total number of bytes read from DRAM
system.mem_ctrl.bytesReadWrQ                     6400                       # Total number of bytes read from write queue
system.mem_ctrl.bytesWritten                     4096                       # Total number of bytes written to DRAM
system.mem_ctrl.bytesReadSys                    22911                       # Total read bytes from the system interface side
system.mem_ctrl.bytesWrittenSys                  3648                       # Total written bytes from the system interface side
system.mem_ctrl.avgRdBW                       1145.78                       # Average DRAM read bandwidth in MiByte/s
system.mem_ctrl.avgWrBW                         13.31                       # Average achieved write bandwidth in MiByte/s
system.mem_ctrl.avgRdBWSys                      74.47                       # Average system read bandwidth in MiByte/s
system.mem_ctrl.avgWrBWSys                      11.86                       # Average system write bandwidth in MiByte/s
system.mem_ctrl.peakBW                       12800.00                       # Theoretical peak bandwidth in MiByte/s
system.mem_ctrl.busUtil                          9.06                       # Data bus utilization in percentage
system.mem_ctrl.busUtilRead                      8.95                       # Data bus utilization in percentage for reads
system.mem_ctrl.busUtilWrite                     0.10                       # Data bus utilization in percentage for writes
system.mem_ctrl.totGap                      307536000                       # Total gap between requests
system.mem_ctrl.avgGap                       47081.45                       # Average gap between requests
system.mem_ctrl.masterReadBytes::.cpu.inst        18420                       # Per-master bytes read from memory
system.mem_ctrl.masterReadBytes::.cpu.data         4091                       # Per-master bytes read from memory
system.mem_ctrl.masterWriteBytes::.cpu.data          247                       # Per-master bytes write to memory
system.mem_ctrl.masterReadRate::.cpu.inst 59870897.283382415771                       # Per-master bytes read from memory rate (Bytes/sec)
system.mem_ctrl.masterReadRate::.cpu.data 13297059.760386398062                       # Per-master bytes read from memory rate (Bytes/sec)
system.mem_ctrl.masterWriteRate::.cpu.data 802829.078664248460                       # Per-master bytes write to memory rate (Bytes/sec)
system.mem_ctrl.masterReadAccesses::.cpu.inst         4605                       # Per-master read serviced memory accesses
system.mem_ctrl.masterReadAccesses::.cpu.data         1003                       # Per-master read serviced memory accesses
system.mem_ctrl.masterWriteAccesses::.cpu.data          924                       # Per-master write serviced memory accesses
system.mem_ctrl.masterReadTotalLat::.cpu.inst    100879000                       # Per-master read total memory access latency
system.mem_ctrl.masterReadTotalLat::.cpu.data     19121500                       # Per-master read total memory access latency
system.mem_ctrl.masterWriteTotalLat::.cpu.data   4948009000                       # Per-master write total memory access latency
system.mem_ctrl.masterReadAvgLat::.cpu.inst     21906.41                       # Per-master read average memory access latency
system.mem_ctrl.masterReadAvgLat::.cpu.data     19064.31                       # Per-master read average memory access latency
system.mem_ctrl.masterWriteAvgLat::.cpu.data   5354988.10                       # Per-master write average memory access latency
system.mem_ctrl.pageHitRate                     91.39                       # Row buffer hit rate, read and write combined
system.mem_ctrl.rank1.actEnergy                842520                       # Energy for activate commands per rank (pJ)
system.mem_ctrl.rank1.preEnergy                436425                       # Energy for precharge commands per rank (pJ)
system.mem_ctrl.rank1.readEnergy              7104300                       # Energy for read commands per rank (pJ)
system.mem_ctrl.rank1.writeEnergy              334080                       # Energy for write commands per rank (pJ)
system.mem_ctrl.rank1.refreshEnergy      23970960.000000                       # Energy for refresh commands per rank (pJ)
system.mem_ctrl.rank1.actBackEnergy         117329370                       # Energy for active background per rank (pJ)
system.mem_ctrl.rank1.preBackEnergy          19338720                       # Energy for precharge background per rank (pJ)
system.mem_ctrl.rank1.actPowerDownEnergy            0                       # Energy for active power-down per rank (pJ)
system.mem_ctrl.rank1.prePowerDownEnergy            0                       # Energy for precharge power-down per rank (pJ)
system.mem_ctrl.rank1.selfRefreshEnergy             0                       # Energy for self refresh per rank (pJ)
system.mem_ctrl.rank1.totalEnergy           169356375                       # Total energy per rank (pJ)
system.mem_ctrl.rank1.averagePower         550.462439                       # Core power per rank (mW)
system.mem_ctrl.rank1.totalIdleTime                 0                       # Total Idle time Per DRAM Rank
system.mem_ctrl.rank1.memoryStateTime::IDLE     49275750                       # Time in different power states
system.mem_ctrl.rank1.memoryStateTime::REF     10140000                       # Time in different power states
system.mem_ctrl.rank1.memoryStateTime::SREF            0                       # Time in different power states
system.mem_ctrl.rank1.memoryStateTime::PRE_PDN            0                       # Time in different power states
system.mem_ctrl.rank1.memoryStateTime::ACT    248246250                       # Time in different power states
system.mem_ctrl.rank1.memoryStateTime::ACT_PDN            0                       # Time in different power states
system.mem_ctrl.rank0.actEnergy               2470440                       # Energy for activate commands per rank (pJ)
system.mem_ctrl.rank0.preEnergy               1301685                       # Energy for precharge commands per rank (pJ)
system.mem_ctrl.rank0.readEnergy             32222820                       # Energy for read commands per rank (pJ)
system.mem_ctrl.rank0.writeEnergy                   0                       # Energy for write commands per rank (pJ)
system.mem_ctrl.rank0.refreshEnergy      23970960.000000                       # Energy for refresh commands per rank (pJ)
system.mem_ctrl.rank0.actBackEnergy         136024230                       # Energy for active background per rank (pJ)
system.mem_ctrl.rank0.preBackEnergy           3595680                       # Energy for precharge background per rank (pJ)
system.mem_ctrl.rank0.actPowerDownEnergy            0                       # Energy for active power-down per rank (pJ)
system.mem_ctrl.rank0.prePowerDownEnergy            0                       # Energy for precharge power-down per rank (pJ)
system.mem_ctrl.rank0.selfRefreshEnergy             0                       # Energy for self refresh per rank (pJ)
system.mem_ctrl.rank0.totalEnergy           199585815                       # Total energy per rank (pJ)
system.mem_ctrl.rank0.averagePower         648.717797                       # Core power per rank (mW)
system.mem_ctrl.rank0.totalIdleTime                 0                       # Total Idle time Per DRAM Rank
system.mem_ctrl.rank0.memoryStateTime::IDLE      6776500                       # Time in different power states
system.mem_ctrl.rank0.memoryStateTime::REF     10140000                       # Time in different power states
system.mem_ctrl.rank0.memoryStateTime::SREF            0                       # Time in different power states
system.mem_ctrl.rank0.memoryStateTime::PRE_PDN            0                       # Time in different power states
system.mem_ctrl.rank0.memoryStateTime::ACT    290745500                       # Time in different power states
system.mem_ctrl.rank0.memoryStateTime::ACT_PDN            0                       # Time in different power states
system.clk_domain.clock                          1000                       # Clock period in ticks
system.clk_domain.voltage_domain.voltage            1                       # Voltage in Volts
system.cpu.numPwrStateTransitions                   1                       # Number of power state transitions
system.cpu.pwrStateResidencyTicks::ON       307662000                       # Cumulative time (in ticks) in various power states
system.cpu.dtb.walker.pwrStateResidencyTicks::UNDEFINED    307662000                       # Cumulative time (in ticks) in various power states
system.cpu.dtb.stage2_mmu.stage2_tlb.walker.pwrStateResidencyTicks::UNDEFINED    307662000                       # Cumulative time (in ticks) in various power states
system.cpu.itb.walker.pwrStateResidencyTicks::UNDEFINED    307662000                       # Cumulative time (in ticks) in various power states
system.cpu.itb.stage2_mmu.stage2_tlb.walker.pwrStateResidencyTicks::UNDEFINED    307662000                       # Cumulative time (in ticks) in various power states

---------- End Simulation Statistics   ----------
